
     RDKit          3D

 97105  0  0  1  0  0  0  0  0999 V2000
   -0.8576    4.1314   -2.9294 O   0  0  0  0  0  0  0  0  0  0  0  0
   -3.2249    1.6732    1.4236 O   0  0  0  0  0  0  0  0  0  0  0  0
   -3.1013    4.3894   -2.6639 O   0  0  0  0  0  0  0  0  0  0  0  0
   -2.8559    3.5430    2.7322 O   0  0  0  0  0  0  0  0  0  0  0  0
   -1.1651    2.0012    0.1220 C   0  0  0  0  0  0  0  0  0  0  0  0
   -0.4911    2.6397   -0.9406 C   0  0  0  0  0  0  0  0  0  0  0  0
   -1.2718    3.4132   -1.8191 C   0  0  0  0  0  0  0  0  0  0  0  0
   -2.5713    2.2058    0.3077 C   0  0  0  0  0  0  0  0  0  0  0  0
   -2.6095    3.5768   -1.6536 C   0  0  0  0  0  0  0  0  0  0  0  0
   -3.3054    3.0010   -0.5937 C   0  0  0  0  0  0  0  0  0  0  0  0
   -2.0105    4.7210   -3.5396 C   0  0  0  0  0  0  0  0  0  0  0  0
   -4.7666    3.2688   -0.3470 C   0  0  0  0  0  0  0  0  0  0  0  0
   -3.4129    2.4209    2.5944 C   0  0  0  0  0  0  0  0  0  0  0  0
   -4.2905    1.8985    3.6848 C   0  0  0  0  0  0  0  0  0  0  0  0
   -0.3928    1.1647    1.1031 C   0  0  2  0  0  0  0  0  0  0  0  0
    1.0269    2.6340   -1.0811 C   0  0  1  0  0  0  0  0  0  0  0  0
    1.7872    2.0007    0.0532 N   0  0  0  0  0  0  0  0  0  0  0  0
    1.0221    1.7560    1.3104 C   0  0  2  0  0  0  0  0  0  0  0  0
    1.9120    1.0980    2.4280 C   0  0  2  0  0  0  0  0  0  0  0  0
    3.0133    2.8069    0.3373 C   0  0  2  0  0  0  0  0  0  0  0  0
    3.8529    2.1887    1.4772 C   0  0  1  0  0  0  0  0  0  0  0  0
    3.0087    2.0494    2.6830 N   0  0  0  0  0  0  0  0  0  0  0  0
   -2.3036   -4.3841   -2.2631 C   0  0  0  0  0  0  0  0  0  0  0  0
   -3.5172   -3.7913   -1.9110 C   0  0  0  0  0  0  0  0  0  0  0  0
   -3.5759   -2.4268   -1.5920 C   0  0  0  0  0  0  0  0  0  0  0  0
   -2.3834   -1.6676   -1.5979 C   0  0  0  0  0  0  0  0  0  0  0  0
   -1.1448   -2.2490   -1.9326 C   0  0  0  0  0  0  0  0  0  0  0  0
   -1.1317   -3.6181   -2.2963 C   0  0  0  0  0  0  0  0  0  0  0  0
    0.1408   -4.2726   -2.7268 C   0  0  0  0  0  0  0  0  0  0  0  0
    0.1986   -1.4544   -1.8292 C   0  0  2  0  0  0  0  0  0  0  0  0
    1.3374   -2.1683   -2.4830 N   0  0  0  0  0  0  0  0  0  0  0  0
    1.0023   -3.2352   -3.4185 C   0  0  0  0  0  0  0  0  0  0  0  0
   -4.6706   -4.5748   -1.9062 O   0  0  0  0  0  0  0  0  0  0  0  0
   -4.8210   -1.8535   -1.2667 O   0  0  0  0  0  0  0  0  0  0  0  0
   -4.9964   -0.5158   -0.8382 C   0  0  0  0  0  0  0  0  0  0  0  0
    1.4877    2.0312   -2.4301 C   0  0  0  0  0  0  0  0  0  0  0  0
    1.3856    0.6155   -2.4409 O   0  0  0  0  0  0  0  0  0  0  0  0
   -0.7000   -0.6346    0.8193 S   0  0  0  0  0  0  0  0  0  0  0  0
    0.5951   -1.2196   -0.3497 C   0  0  0  0  0  0  0  0  0  0  0  0
    0.1794   -0.0878   -2.4676 C   0  0  0  0  0  0  0  0  0  0  0  0
    3.7729    1.7521    3.9081 C   0  0  0  0  0  0  0  0  0  0  0  0
   -0.8632    0.4184   -2.9714 O   0  0  0  0  0  0  0  0  0  0  0  0
    2.6682    4.1221    0.7247 O   0  0  0  0  0  0  0  0  0  0  0  0
    0.7718    2.7644    1.7361 H   0  0  0  0  0  0  0  0  0  0  0  0
    3.6738   -0.3498    1.3157 C   0  0  0  0  0  0  0  0  0  0  0  0
    2.4447   -2.7384    2.1175 C   0  0  0  0  0  0  0  0  0  0  0  0
    1.9245   -1.4957    2.5570 C   0  0  0  0  0  0  0  0  0  0  0  0
    4.1840   -1.5844    0.9093 C   0  0  0  0  0  0  0  0  0  0  0  0
    3.5482   -2.7793    1.2531 C   0  0  0  0  0  0  0  0  0  0  0  0
    4.0920   -4.0874    0.7513 C   0  0  0  0  0  0  0  0  0  0  0  0
    1.8496   -3.9346    2.5293 O   0  0  0  0  0  0  0  0  0  0  0  0
    0.8587   -1.4703    3.4574 O   0  0  0  0  0  0  0  0  0  0  0  0
    0.6640   -4.4359    1.8995 C   0  0  0  0  0  0  0  0  0  0  0  0
    2.4916   -0.2825    2.0843 C   0  0  0  0  0  0  0  0  0  0  0  0
    4.5188    0.8594    1.0459 C   0  0  0  0  0  0  0  0  0  0  0  0
   -2.1630    4.2714   -4.5372 H   0  0  0  0  0  0  0  0  0  0  0  0
   -1.8907    5.8225   -3.6146 H   0  0  0  0  0  0  0  0  0  0  0  0
   -5.1805    3.9876   -1.0966 H   0  0  0  0  0  0  0  0  0  0  0  0
   -4.8730    3.7315    0.6536 H   0  0  0  0  0  0  0  0  0  0  0  0
   -5.3454    2.3180   -0.3833 H   0  0  0  0  0  0  0  0  0  0  0  0
   -3.7999    2.0416    4.6579 H   0  0  0  0  0  0  0  0  0  0  0  0
   -4.5054    0.8296    3.5477 H   0  0  0  0  0  0  0  0  0  0  0  0
   -5.2501    2.4572    3.7067 H   0  0  0  0  0  0  0  0  0  0  0  0
   -0.8720    1.3150    2.0938 H   0  0  0  0  0  0  0  0  0  0  0  0
    1.2706    3.7187   -1.1555 H   0  0  0  0  0  0  0  0  0  0  0  0
    1.2944    1.0231    3.3401 H   0  0  0  0  0  0  0  0  0  0  0  0
    3.6525    2.8261   -0.5806 H   0  0  0  0  0  0  0  0  0  0  0  0
    4.6822    2.8940    1.6888 H   0  0  0  0  0  0  0  0  0  0  0  0
   -2.2745   -5.4482   -2.5015 H   0  0  0  0  0  0  0  0  0  0  0  0
   -2.4163   -0.6190   -1.3213 H   0  0  0  0  0  0  0  0  0  0  0  0
    0.6674   -4.6751   -1.8415 H   0  0  0  0  0  0  0  0  0  0  0  0
   -0.0555   -5.0934   -3.4487 H   0  0  0  0  0  0  0  0  0  0  0  0
    2.0492   -2.5382   -1.8104 H   0  0  0  0  0  0  0  0  0  0  0  0
    0.4695   -2.8190   -4.2950 H   0  0  0  0  0  0  0  0  0  0  0  0
    1.9342   -3.7229   -3.7746 H   0  0  0  0  0  0  0  0  0  0  0  0
   -5.5834   -4.1953   -1.6945 H   0  0  0  0  0  0  0  0  0  0  0  0
   -6.0716   -0.3618   -0.6062 H   0  0  0  0  0  0  0  0  0  0  0  0
   -4.7179    0.1808   -1.6694 H   0  0  0  0  0  0  0  0  0  0  0  0
   -4.3764   -0.3098    0.0762 H   0  0  0  0  0  0  0  0  0  0  0  0
    0.9522    2.4627   -3.3043 H   0  0  0  0  0  0  0  0  0  0  0  0
    2.5642    2.2817   -2.5794 H   0  0  0  0  0  0  0  0  0  0  0  0
    1.4820   -0.5716   -0.2901 H   0  0  0  0  0  0  0  0  0  0  0  0
    0.8749   -2.2027    0.0463 H   0  0  0  0  0  0  0  0  0  0  0  0
    4.3846    2.6353    4.1713 H   0  0  0  0  0  0  0  0  0  0  0  0
    3.0834    1.5594    4.7531 H   0  0  0  0  0  0  0  0  0  0  0  0
    4.4422    0.8784    3.7880 H   0  0  0  0  0  0  0  0  0  0  0  0
    3.0590    4.7587    0.0728 H   0  0  0  0  0  0  0  0  0  0  0  0
    5.0820   -1.6075    0.3080 H   0  0  0  0  0  0  0  0  0  0  0  0
    4.7563   -3.9291   -0.1211 H   0  0  0  0  0  0  0  0  0  0  0  0
    3.2691   -4.7426    0.4224 H   0  0  0  0  0  0  0  0  0  0  0  0
    4.6709   -4.5864    1.5566 H   0  0  0  0  0  0  0  0  0  0  0  0
    0.4657   -2.3218    3.8447 H   0  0  0  0  0  0  0  0  0  0  0  0
    0.4059   -5.4391    2.3034 H   0  0  0  0  0  0  0  0  0  0  0  0
    0.8038   -4.5144    0.8042 H   0  0  0  0  0  0  0  0  0  0  0  0
   -0.1988   -3.7591    2.0954 H   0  0  0  0  0  0  0  0  0  0  0  0
    4.8242    0.8896   -0.0193 H   0  0  0  0  0  0  0  0  0  0  0  0
    5.4561    0.7405    1.6382 H   0  0  0  0  0  0  0  0  0  0  0  0
  1  7  1  0
  1 11  1  0
  2  8  1  0
  2 13  1  0
  3  9  1  0
  3 11  1  0
  4 13  2  0
  5  8  2  0
  6  7  2  0
  7  9  1  0
  8 10  1  0
  9 10  2  0
 10 12  1  0
 13 14  1  0
  6 16  1  0
  5  6  1  0
 15  5  1  0
 16 17  1  0
 15 18  1  0
 19 18  1  0
 18 17  1  0
 17 20  1  0
 20 21  1  0
 21 22  1  0
 19 22  1  0
 23 24  2  0
 24 25  1  0
 25 26  2  0
 26 27  1  0
 23 28  1  0
 29 28  1  0
 27 28  2  0
 27 30  1  0
 30 31  1  6
 31 32  1  0
 29 32  1  0
 24 33  1  0
 25 34  1  0
 34 35  1  0
 16 36  1  0
 36 37  1  0
 15 38  1  0
 39 38  1  0
 30 39  1  0
 30 40  1  0
 37 40  1  0
 22 41  1  0
 40 42  2  0
 20 43  1  0
 18 44  1  1
 55 45  1  0
 47 54  2  0
 54 45  1  0
 45 48  2  0
 46 47  1  0
 48 49  1  0
 46 49  2  0
 49 50  1  0
 46 51  1  0
 47 52  1  0
 51 53  1  0
 19 54  1  0
 21 55  1  0
 11 56  1  0
 11 57  1  0
 12 58  1  0
 12 59  1  0
 12 60  1  0
 14 61  1  0
 14 62  1  0
 14 63  1  0
 15 64  1  1
 16 65  1  6
 19 66  1  1
 20 67  1  6
 21 68  1  1
 23 69  1  0
 26 70  1  0
 29 71  1  0
 29 72  1  0
 31 73  1  0
 32 74  1  0
 32 75  1  0
 33 76  1  0
 35 77  1  0
 35 78  1  0
 35 79  1  0
 36 80  1  0
 36 81  1  0
 39 82  1  0
 39 83  1  0
 41 84  1  0
 41 85  1  0
 41 86  1  0
 43 87  1  0
 48 88  1  0
 50 89  1  0
 50 90  1  0
 50 91  1  0
 52 92  1  0
 53 93  1  0
 53 94  1  0
 53 95  1  0
 55 96  1  0
 55 97  1  0
M  END
>  <DATABASE_ID>  (1) 
DB05109

>  <DATABASE_NAME>  (1) 
drugbank

>  <SMILES>  (1) 
[H][C@@]12[C@@H]3SC[C@]4(NCCC5=C4C=C(OC)C(O)=C5)C(=O)OC[C@H](N1[C@@H](O)[C@@H]1CC4=CC(C)=C(OC)C(O)=C4[C@H]2N1C)C1=C2OCOC2=C(C)C(OC(C)=O)=C31

>  <INCHI_IDENTIFIER>  (1) 
InChI=1S/C39H43N3O11S/c1-16-9-20-10-22-37(46)42-23-13-50-38(47)39(21-12-25(48-5)24(44)11-19(21)7-8-40-39)14-54-36(30(42)29(41(22)4)26(20)31(45)32(16)49-6)28-27(23)35-34(51-15-52-35)17(2)33(28)53-18(3)43/h9,11-12,22-23,29-30,36-37,40,44-46H,7-8,10,13-15H2,1-6H3/t22-,23-,29+,30+,36+,37-,39+/m0/s1

>  <INCHI_KEY>  (1) 
PKVRCIRHQMSYJX-AIFWHQITSA-N

>  <FORMULA>  (1) 
C39H43N3O11S

>  <MOLECULAR_WEIGHT>  (1) 
761.837

>  <EXACT_MASS>  (1) 
761.261829923

>  <JCHEM_ACCEPTOR_COUNT>  (1) 
12

>  <JCHEM_ATOM_COUNT>  (1) 
97

>  <JCHEM_AVERAGE_NEUTRAL_MICROSPECIES_CHARGE>  (1) 
0.609567905983387

>  <JCHEM_AVERAGE_POLARIZABILITY>  (1) 
77.97598646421704

>  <JCHEM_BIOAVAILABILITY>  (1) 
0

>  <JCHEM_DONOR_COUNT>  (1) 
4

>  <JCHEM_FORMAL_CHARGE>  (1) 
0

>  <JCHEM_GHOSE_FILTER>  (1) 
0

>  <JCHEM_IUPAC>  (1) 
(1R,2R,3R,11S,12S,14R,26R)-5,6',12-trihydroxy-6,7'-dimethoxy-7,21,30-trimethyl-27-oxo-3',4'-dihydro-2'H-17,19,28-trioxa-24-thia-13,30-diazaspiro[heptacyclo[12.9.6.1^{3,11}.0^{2,13}.0^{4,9}.0^{15,23}.0^{16,20}]triacontane-26,1'-isoquinoline]-4,6,8,15,20,22-hexaen-22-yl acetate

>  <ALOGPS_LOGP>  (1) 
2.04

>  <JCHEM_LOGP>  (1) 
4.193910865333333

>  <ALOGPS_LOGS>  (1) 
-3.37

>  <JCHEM_MDDR_LIKE_RULE>  (1) 
0

>  <JCHEM_NEUTRAL_CHARGE>  (1) 
1

>  <JCHEM_NUMBER_OF_RINGS>  (1) 
9

>  <JCHEM_PHYSIOLOGICAL_CHARGE>  (1) 
1

>  <JCHEM_PKA>  (1) 
10.057912254304542

>  <JCHEM_PKA_STRONGEST_ACIDIC>  (1) 
9.256092143041649

>  <JCHEM_PKA_STRONGEST_BASIC>  (1) 
7.196201624817803

>  <JCHEM_POLAR_SURFACE_AREA>  (1) 
168.72

>  <JCHEM_REFRACTIVITY>  (1) 
196.921

>  <JCHEM_ROTATABLE_BOND_COUNT>  (1) 
4

>  <JCHEM_RULE_OF_FIVE>  (1) 
0

>  <ALOGPS_SOLUBILITY>  (1) 
3.28e-01 g/l

>  <JCHEM_TRADITIONAL_IUPAC>  (1) 
tetrahydrofolic acid

>  <JCHEM_VEBER_RULE>  (1) 
0

>  <DRUGBANK_ID>  (1) 
DB05109

>  <DRUG_GROUPS>  (1) 
approved; investigational

>  <GENERIC_NAME>  (1) 
Trabectedin

>  <SYNONYMS>  (1) 
Ecteinascidin 743; Trabectedin; Trabectedina

>  <PRODUCTS>  (1) 
Yondelis

$$$$
