
     RDKit          3D

111119  0  0  0  0  0  0  0  0999 V2000
    2.3751   -0.4802    0.8214 C   0  0  2  0  0  0  0  0  0  0  0  0
    1.8224   -0.9647   -0.5217 C   0  0  2  0  0  0  0  0  0  0  0  0
    0.4883   -1.7454   -0.4656 C   0  0  0  0  0  0  0  0  0  0  0  0
    0.5438   -3.1025    0.2024 C   0  0  0  0  0  0  0  0  0  0  0  0
    0.2418   -4.3472   -0.5952 C   0  0  0  0  0  0  0  0  0  0  0  0
   -1.2682   -4.6634   -0.6306 C   0  0  1  0  0  0  0  0  0  0  0  0
   -1.7115   -5.4384    0.6298 C   0  0  0  0  0  0  0  0  0  0  0  0
   -3.2231   -5.6938    0.5841 C   0  0  0  0  0  0  0  0  0  0  0  0
   -3.9661   -4.3767    0.3438 C   0  0  1  0  0  0  0  0  0  0  0  0
   -3.3818   -3.7118   -0.9197 C   0  0  1  0  0  0  0  0  0  0  0  0
   -4.1227   -2.4011   -1.1736 C   0  0  1  0  0  0  0  0  0  0  0  0
   -5.6067   -2.7710   -1.4203 C   0  0  1  0  0  0  0  0  0  0  0  0
   -6.1732   -3.5637   -0.2634 C   0  0  1  0  0  0  0  0  0  0  0  0
   -5.3663   -4.6338    0.2493 O   0  0  0  0  0  0  0  0  0  0  0  0
   -3.7784   -1.4274   -0.1644 O   0  0  0  0  0  0  0  0  0  0  0  0
   -4.7360   -1.0252    0.8277 C   0  0  2  0  0  0  0  0  0  0  0  0
   -5.8581   -0.1926    0.2223 C   0  0  0  0  0  0  0  0  0  0  0  0
   -6.4039   -1.6242   -1.5598 O   0  0  0  0  0  0  0  0  0  0  0  0
   -6.7826   -1.2692   -0.2475 C   0  0  1  0  0  0  0  0  0  0  0  0
   -6.4907   -2.4459    0.6918 C   0  0  2  0  0  0  0  0  0  0  0  0
   -4.0057   -0.2383    1.9487 C   0  0  0  0  0  0  0  0  0  0  0  0
   -2.7824    0.6050    1.5285 C   0  0  0  0  0  0  0  0  0  0  0  0
   -3.0136    1.6738    0.4408 C   0  0  1  0  0  0  0  0  0  0  0  0
   -4.0440    2.7389    0.8359 C   0  0  0  0  0  0  0  0  0  0  0  0
   -1.7704    2.3033    0.1644 O   0  0  0  0  0  0  0  0  0  0  0  0
   -1.7842    3.5933    0.7423 C   0  0  1  0  0  0  0  0  0  0  0  0
   -1.1655    4.6112   -0.2495 C   0  0  0  0  0  0  0  0  0  0  0  0
   -3.1960    3.9051    1.0796 C   0  0  0  0  0  0  0  0  0  0  0  0
    0.1647    5.2060    0.2497 C   0  0  0  0  0  0  0  0  0  0  0  0
    1.3567    4.2387    0.1180 C   0  0  2  0  0  0  0  0  0  0  0  0
    1.1295    3.0871    0.9189 O   0  0  0  0  0  0  0  0  0  0  0  0
    2.6586    4.9506    0.5590 C   0  0  0  0  0  0  0  0  0  0  0  0
    3.8562    3.9839    0.5124 C   0  0  2  0  0  0  0  0  0  0  0  0
    3.4602    2.7001    1.2312 C   0  0  0  0  0  0  0  0  0  0  0  0
    2.1446    2.1200    0.7176 C   0  0  1  0  0  0  0  0  0  0  0  0
    1.6691    0.7931    1.3541 C   0  0  0  0  0  0  0  0  0  0  0  0
    4.1445    2.1951    2.2830 C   0  0  0  0  0  0  0  0  0  0  0  0
    1.6549   -0.0834   -1.1815 H   0  0  0  0  0  0  0  0  0  0  0  0
    2.2406   -1.2728    1.5866 H   0  0  0  0  0  0  0  0  0  0  0  0
    0.7204   -3.1857    1.4064 O   0  0  0  0  0  0  0  0  0  0  0  0
   -1.4400   -5.3132   -1.5217 H   0  0  0  0  0  0  0  0  0  0  0  0
   -1.9999   -3.4522   -0.7614 O   0  0  0  0  0  0  0  0  0  0  0  0
   -3.7461   -3.7582    1.2357 H   0  0  0  0  0  0  0  0  0  0  0  0
   -5.3491   -2.1345    1.4458 O   0  0  0  0  0  0  0  0  0  0  0  0
   -3.5430   -4.3767   -1.8026 H   0  0  0  0  0  0  0  0  0  0  0  0
   -3.7413   -1.9954   -2.1362 H   0  0  0  0  0  0  0  0  0  0  0  0
   -5.6857   -3.3740   -2.3509 H   0  0  0  0  0  0  0  0  0  0  0  0
   -7.1369   -4.0099   -0.5976 H   0  0  0  0  0  0  0  0  0  0  0  0
   -1.2147    3.5621    1.6969 H   0  0  0  0  0  0  0  0  0  0  0  0
    2.2597    1.9261   -0.3717 H   0  0  0  0  0  0  0  0  0  0  0  0
   -3.6186    5.0393    1.6498 C   0  0  0  0  0  0  0  0  0  0  0  0
   -7.8489   -0.9527   -0.2202 H   0  0  0  0  0  0  0  0  0  0  0  0
   -3.3453    1.1712   -0.4912 H   0  0  0  0  0  0  0  0  0  0  0  0
    2.9881   -1.7451   -1.0707 C   0  0  2  0  0  0  0  0  0  0  0  0
    4.1839   -0.9625   -0.5030 C   0  0  2  0  0  0  0  0  0  0  0  0
    3.7659   -0.2802    0.6694 O   0  0  0  0  0  0  0  0  0  0  0  0
    2.9485   -1.7729   -2.4883 O   0  0  0  0  0  0  0  0  0  0  0  0
    4.7782    0.0512   -1.5108 C   0  0  0  0  0  0  0  0  0  0  0  0
    5.9187    0.9237   -0.9415 C   0  0  1  0  0  0  0  0  0  0  0  0
    7.1666    0.0980   -0.5713 C   0  0  0  0  0  0  0  0  0  0  0  0
    8.2310    0.9729   -0.0885 N   0  0  0  0  0  0  0  0  0  0  0  0
    3.6141   -2.9189   -2.9682 C   0  0  0  0  0  0  0  0  0  0  0  0
    6.2548    1.9269   -1.8681 O   0  0  0  0  0  0  0  0  0  0  0  0
    1.4447    3.9616   -0.9581 H   0  0  0  0  0  0  0  0  0  0  0  0
    5.1261    4.6707    1.0377 C   0  0  0  0  0  0  0  0  0  0  0  0
   -0.2775   -1.1352    0.0468 H   0  0  0  0  0  0  0  0  0  0  0  0
    0.1299   -1.8671   -1.5122 H   0  0  0  0  0  0  0  0  0  0  0  0
    0.5980   -4.2014   -1.6375 H   0  0  0  0  0  0  0  0  0  0  0  0
    0.8138   -5.2076   -0.1867 H   0  0  0  0  0  0  0  0  0  0  0  0
   -1.4693   -4.8516    1.5430 H   0  0  0  0  0  0  0  0  0  0  0  0
   -1.1778   -6.4119    0.6864 H   0  0  0  0  0  0  0  0  0  0  0  0
   -3.5519   -6.1461    1.5459 H   0  0  0  0  0  0  0  0  0  0  0  0
   -3.4576   -6.4140   -0.2297 H   0  0  0  0  0  0  0  0  0  0  0  0
   -5.5195    0.4585   -0.6126 H   0  0  0  0  0  0  0  0  0  0  0  0
   -6.3808    0.4209    0.9904 H   0  0  0  0  0  0  0  0  0  0  0  0
   -7.3454   -2.6888    1.3601 H   0  0  0  0  0  0  0  0  0  0  0  0
   -4.7206    0.3750    2.5357 H   0  0  0  0  0  0  0  0  0  0  0  0
   -3.6169   -0.9830    2.6783 H   0  0  0  0  0  0  0  0  0  0  0  0
   -2.3810    1.1009    2.4391 H   0  0  0  0  0  0  0  0  0  0  0  0
   -1.9913   -0.0866    1.1783 H   0  0  0  0  0  0  0  0  0  0  0  0
   -4.6226    2.4848    1.7489 H   0  0  0  0  0  0  0  0  0  0  0  0
   -4.7371    2.9548   -0.0070 H   0  0  0  0  0  0  0  0  0  0  0  0
   -1.0094    4.1406   -1.2441 H   0  0  0  0  0  0  0  0  0  0  0  0
   -1.8611    5.4612   -0.4255 H   0  0  0  0  0  0  0  0  0  0  0  0
    0.0554    5.5396    1.3048 H   0  0  0  0  0  0  0  0  0  0  0  0
    0.3853    6.1131   -0.3578 H   0  0  0  0  0  0  0  0  0  0  0  0
    2.5370    5.3303    1.5995 H   0  0  0  0  0  0  0  0  0  0  0  0
    2.8603    5.8150   -0.1103 H   0  0  0  0  0  0  0  0  0  0  0  0
    4.0465    3.7195   -0.5532 H   0  0  0  0  0  0  0  0  0  0  0  0
    1.7389    0.8449    2.4600 H   0  0  0  0  0  0  0  0  0  0  0  0
    0.5783    0.6889    1.1609 H   0  0  0  0  0  0  0  0  0  0  0  0
    5.0503    2.6538    2.6531 H   0  0  0  0  0  0  0  0  0  0  0  0
    3.8384    1.3002    2.8106 H   0  0  0  0  0  0  0  0  0  0  0  0
   -2.9226    5.8454    1.8643 H   0  0  0  0  0  0  0  0  0  0  0  0
   -4.6641    5.1642    1.9104 H   0  0  0  0  0  0  0  0  0  0  0  0
    2.9872   -2.7660   -0.6186 H   0  0  0  0  0  0  0  0  0  0  0  0
    4.9698   -1.6960   -0.2280 H   0  0  0  0  0  0  0  0  0  0  0  0
    3.9686    0.7270   -1.8569 H   0  0  0  0  0  0  0  0  0  0  0  0
    5.1648   -0.4918   -2.3988 H   0  0  0  0  0  0  0  0  0  0  0  0
    5.5597    1.4295   -0.0200 H   0  0  0  0  0  0  0  0  0  0  0  0
    7.5231   -0.4851   -1.4502 H   0  0  0  0  0  0  0  0  0  0  0  0
    6.9093   -0.6203    0.2370 H   0  0  0  0  0  0  0  0  0  0  0  0
    8.6435    1.4735   -0.9082 H   0  0  0  0  0  0  0  0  0  0  0  0
    8.9916    0.3658    0.2945 H   0  0  0  0  0  0  0  0  0  0  0  0
    3.6662   -2.8665   -4.0756 H   0  0  0  0  0  0  0  0  0  0  0  0
    4.6581   -2.9770   -2.5839 H   0  0  0  0  0  0  0  0  0  0  0  0
    3.0517   -3.8385   -2.7012 H   0  0  0  0  0  0  0  0  0  0  0  0
    6.5886    1.4785   -2.6910 H   0  0  0  0  0  0  0  0  0  0  0  0
    5.3397    5.5776    0.4343 H   0  0  0  0  0  0  0  0  0  0  0  0
    5.0010    4.9750    2.0982 H   0  0  0  0  0  0  0  0  0  0  0  0
    6.0000    3.9913    0.9412 H   0  0  0  0  0  0  0  0  0  0  0  0
  1  2  1  0
  2  3  1  0
  3  4  1  0
  4  5  1  0
  5  6  1  0
  6  7  1  0
  7  8  1  0
  8  9  1  0
  9 10  1  0
 10 11  1  0
 11 12  1  0
 12 13  1  0
 13 14  1  0
  9 14  1  0
 11 15  1  0
 15 16  1  0
 16 17  1  0
 12 18  1  0
 17 19  1  0
 13 20  1  0
 20 19  1  0
 16 21  1  1
 21 22  1  0
 22 23  1  0
 23 24  1  0
 23 25  1  0
 25 26  1  0
 26 27  1  0
 26 28  1  0
 28 24  1  0
 27 29  1  0
 29 30  1  0
 30 31  1  0
 30 32  1  0
 32 33  1  0
 33 34  1  0
 34 35  1  0
 31 35  1  0
  1 36  1  0
 36 35  1  0
 34 37  2  0
  2 38  1  6
  1 39  1  1
  4 40  2  0
  6 41  1  6
  6 42  1  0
 42 10  1  0
  9 43  1  1
 16 44  1  0
 20 44  1  0
 19 18  1  0
 10 45  1  6
 11 46  1  6
 12 47  1  6
 13 48  1  6
 26 49  1  1
 35 50  1  6
 28 51  2  0
 19 52  1  6
 23 53  1  6
  2 54  1  0
 54 55  1  0
 55 56  1  0
  1 56  1  0
 54 57  1  0
 55 58  1  0
 58 59  1  0
 59 60  1  0
 60 61  1  0
 57 62  1  0
 59 63  1  0
 30 64  1  6
 33 65  1  0
  3 66  1  0
  3 67  1  0
  5 68  1  0
  5 69  1  0
  7 70  1  0
  7 71  1  0
  8 72  1  0
  8 73  1  0
 17 74  1  0
 17 75  1  0
 20 76  1  1
 21 77  1  0
 21 78  1  0
 22 79  1  0
 22 80  1  0
 24 81  1  0
 24 82  1  0
 27 83  1  0
 27 84  1  0
 29 85  1  0
 29 86  1  0
 32 87  1  0
 32 88  1  0
 33 89  1  6
 36 90  1  0
 36 91  1  0
 37 92  1  0
 37 93  1  0
 51 94  1  0
 51 95  1  0
 54 96  1  1
 55 97  1  1
 58 98  1  0
 58 99  1  0
 59100  1  1
 60101  1  0
 60102  1  0
 61103  1  0
 61104  1  0
 62105  1  0
 62106  1  0
 62107  1  0
 63108  1  0
 65109  1  0
 65110  1  0
 65111  1  0
M  END
>  <DATABASE_ID>  (1) 
DB08871

>  <DATABASE_NAME>  (1) 
drugbank

>  <SMILES>  (1) 
[H][C@@]12CC(=C)[C@]([H])(CC[C@@]3([H])C[C@@H](C)C(=C)[C@@]([H])(C[C@]4([H])O[C@H](C[C@H](O)CN)[C@H](OC)[C@@]4([H])CC(=O)C[C@@]4([H])CC[C@]5([H])O[C@@]6([H])[C@H]7O[C@@]8(C[C@]7([H])O[C@@]6([H])[C@@]([H])(O8)[C@@]5([H])O4)CC1)O3)O2

>  <INCHI_IDENTIFIER>  (1) 
InChI=1S/C40H59NO11/c1-19-11-24-5-7-28-20(2)12-26(45-28)9-10-40-17-33-36(51-40)37-38(50-33)39(52-40)35-29(49-37)8-6-25(47-35)13-22(42)14-27-31(16-30(46-24)21(19)3)48-32(34(27)44-4)15-23(43)18-41/h19,23-39,43H,2-3,5-18,41H2,1,4H3/t19-,23+,24+,25-,26+,27+,28+,29+,30-,31+,32-,33-,34-,35+,36+,37+,38-,39+,40+/m1/s1

>  <INCHI_KEY>  (1) 
UFNVPOGXISZXJD-JBQZKEIOSA-N

>  <FORMULA>  (1) 
C40H59NO11

>  <MOLECULAR_WEIGHT>  (1) 
729.908

>  <EXACT_MASS>  (1) 
729.408811724

>  <JCHEM_ACCEPTOR_COUNT>  (1) 
12

>  <JCHEM_ATOM_COUNT>  (1) 
111

>  <JCHEM_AVERAGE_NEUTRAL_MICROSPECIES_CHARGE>  (1) 
0.9972733119217326

>  <JCHEM_AVERAGE_POLARIZABILITY>  (1) 
82.14806517746374

>  <JCHEM_BIOAVAILABILITY>  (1) 
0

>  <JCHEM_DONOR_COUNT>  (1) 
2

>  <JCHEM_FORMAL_CHARGE>  (1) 
0

>  <JCHEM_GHOSE_FILTER>  (1) 
0

>  <JCHEM_IUPAC>  (1) 
(1S,3S,6S,9S,12S,14R,16R,18S,20R,21R,22S,26R,29S,31R,32S,33S,35R,36S)-20-[(2S)-3-amino-2-hydroxypropyl]-21-methoxy-14-methyl-8,15-dimethylidene-2,19,30,34,37,39,40,41-octaoxanonacyclo[24.9.2.1^{3,32}.1^{3,33}.1^{6,9}.1^{12,16}.0^{18,22}.0^{29,36}.0^{31,35}]hentetracontan-24-one

>  <ALOGPS_LOGP>  (1) 
1.26

>  <JCHEM_LOGP>  (1) 
2.3077780763333315

>  <ALOGPS_LOGS>  (1) 
-3.96

>  <JCHEM_MDDR_LIKE_RULE>  (1) 
0

>  <JCHEM_NEUTRAL_CHARGE>  (1) 
1

>  <JCHEM_NUMBER_OF_RINGS>  (1) 
9

>  <JCHEM_PHYSIOLOGICAL_CHARGE>  (1) 
1

>  <JCHEM_PKA>  (1) 
19.43784524468193

>  <JCHEM_PKA_STRONGEST_ACIDIC>  (1) 
14.816229934967454

>  <JCHEM_PKA_STRONGEST_BASIC>  (1) 
9.563181159256786

>  <JCHEM_POLAR_SURFACE_AREA>  (1) 
146.39000000000001

>  <JCHEM_REFRACTIVITY>  (1) 
185.99539999999996

>  <JCHEM_ROTATABLE_BOND_COUNT>  (1) 
4

>  <JCHEM_RULE_OF_FIVE>  (1) 
0

>  <ALOGPS_SOLUBILITY>  (1) 
7.98e-02 g/l

>  <JCHEM_TRADITIONAL_IUPAC>  (1) 
(5Z,7E)-deca-5,7,9-trien-2-one

>  <JCHEM_VEBER_RULE>  (1) 
0

>  <DRUGBANK_ID>  (1) 
DB08871

>  <SECONDARY_ACCESSION_NUMBERS>  (1) 
DB04940

>  <DRUG_GROUPS>  (1) 
approved; investigational

>  <GENERIC_NAME>  (1) 
Eribulin

>  <SYNONYMS>  (1) 
Eribulin; Eribulina

>  <PRODUCTS>  (1) 
Eribulin Baxter; Eribulin Mesylate; Eribulin Mesylate Injection; Halaven; Mevlyq; Nat-eribulin

>  <SALTS>  (1) 
Eribulin mesylate

$$$$
