C40H59NO11
APtclcactv06182508373D 0   0.00000     0.00000
 
111119  0  0  1  0  0  0  0  0999 V2000
   -3.3719    3.2019   -1.4032 H   0  0  0  0  0  0  0  0  0  0  0  0
   -3.5090    3.4660   -0.3549 C   0  0  2  0  0  0  0  0  0  0  0  0
   -4.1273    4.8698   -0.2498 C   0  0  0  0  0  0  0  0  0  0  0  0
   -2.9183    5.7648   -0.0370 C   0  0  0  0  0  0  0  0  0  0  0  0
   -2.8310    7.0513   -0.2681 C   0  0  0  0  0  0  0  0  0  0  0  0
   -1.8400    4.8553    0.4977 C   0  0  2  0  0  0  0  0  0  0  0  0
   -1.6898    5.0522    1.5622 H   0  0  0  0  0  0  0  0  0  0  0  0
   -0.5240    5.0991   -0.2487 C   0  0  0  0  0  0  0  0  0  0  0  0
    0.6197    4.4768    0.5556 C   0  0  0  0  0  0  0  0  0  0  0  0
    1.7712    4.1025   -0.3869 C   0  0  1  0  0  0  0  0  0  0  0  0
    1.4992    4.4123   -1.4028 H   0  0  0  0  0  0  0  0  0  0  0  0
    3.0265    4.8354    0.0487 C   0  0  0  0  0  0  0  0  0  0  0  0
    3.9743    3.9656    0.8755 C   0  0  1  0  0  0  0  0  0  0  0  0
    4.8737    4.5270    1.1287 H   0  0  0  0  0  0  0  0  0  0  0  0
    3.2750    3.4902    2.1506 C   0  0  0  0  0  0  0  0  0  0  0  0
    4.3312    2.7724   -0.0067 C   0  0  0  0  0  0  0  0  0  0  0  0
    5.4670    2.1241    0.0682 C   0  0  0  0  0  0  0  0  0  0  0  0
    3.2161    2.4208   -0.9853 C   0  0  1  0  0  0  0  0  0  0  0  0
    3.3308    3.0418   -1.8722 H   0  0  0  0  0  0  0  0  0  0  0  0
    3.3116    0.9477   -1.3612 C   0  0  0  0  0  0  0  0  0  0  0  0
    3.5286    0.0865   -0.1179 C   0  0  2  0  0  0  0  0  0  0  0  0
    3.2230    0.6320    0.7747 H   0  0  0  0  0  0  0  0  0  0  0  0
    4.9064   -0.2797   -0.0139 O   0  0  0  0  0  0  0  0  0  0  0  0
    5.0188   -1.6268    0.4462 C   0  0  2  0  0  0  0  0  0  0  0  0
    5.2483   -1.6344    1.5117 H   0  0  0  0  0  0  0  0  0  0  0  0
    6.1262   -2.3465   -0.3263 C   0  0  0  0  0  0  0  0  0  0  0  0
    7.4770   -1.7102    0.0073 C   0  0  2  0  0  0  0  0  0  0  0  0
    7.6252   -1.7172    1.0871 H   0  0  0  0  0  0  0  0  0  0  0  0
    7.4990   -0.3626   -0.4678 O   0  0  0  0  0  0  0  0  0  0  0  0
    8.5962   -2.5068   -0.6663 C   0  0  0  0  0  0  0  0  0  0  0  0
    9.8985   -1.9693   -0.2504 N   0  0  0  0  0  0  0  0  0  0  0  0
    3.6756   -2.3288    0.1996 C   0  0  2  0  0  0  0  0  0  0  0  0
    3.3208   -2.8002    1.1161 H   0  0  0  0  0  0  0  0  0  0  0  0
    3.8070   -3.3013   -0.8391 O   0  0  0  0  0  0  0  0  0  0  0  0
    3.6556   -4.5833   -0.2262 C   0  0  0  0  0  0  0  0  0  0  0  0
    2.7112   -1.2100   -0.2343 C   0  0  1  0  0  0  0  0  0  0  0  0
    2.3932   -1.3644   -1.2653 H   0  0  0  0  0  0  0  0  0  0  0  0
    1.5010   -1.1553    0.6989 C   0  0  0  0  0  0  0  0  0  0  0  0
    0.8141   -2.4963    0.7254 C   0  0  0  0  0  0  0  0  0  0  0  0
    0.8498   -3.1745    1.7239 O   0  0  0  0  0  0  0  0  0  0  0  0
    0.0831   -2.9885   -0.4942 C   0  0  0  0  0  0  0  0  0  0  0  0
   -1.3507   -3.3670   -0.1427 C   0  0  1  0  0  0  0  0  0  0  0  0
   -1.5635   -4.3614   -0.5641 H   0  0  0  0  0  0  0  0  0  0  0  0
   -1.5412   -3.4480    1.3718 C   0  0  0  0  0  0  0  0  0  0  0  0
   -2.9513   -3.9999    1.6448 C   0  0  0  0  0  0  0  0  0  0  0  0
   -3.9453   -3.0866    0.8987 C   0  0  2  0  0  0  0  0  0  0  0  0
   -3.8335   -2.0864    1.3231 H   0  0  0  0  0  0  0  0  0  0  0  0
   -5.2599   -3.5695    1.0515 O   0  0  0  0  0  0  0  0  0  0  0  0
   -6.2325   -2.8845    0.3312 C   0  0  1  0  0  0  0  0  0  0  0  0
   -7.1959   -3.3887    0.4660 H   0  0  0  0  0  0  0  0  0  0  0  0
   -6.3976   -1.3842    0.6919 C   0  0  1  0  0  0  0  0  0  0  0  0
   -7.2201   -1.1884    1.4110 H   0  0  0  0  0  0  0  0  0  0  0  0
   -5.1297   -0.7990    1.0709 O   0  0  0  0  0  0  0  0  0  0  0  0
   -4.6876   -0.0087   -0.0573 C   0  0  2  0  0  0  0  0  0  0  0  0
   -6.0604    0.6008   -0.6087 C   0  0  0  0  0  0  0  0  0  0  0  0
   -6.5430   -0.8022   -0.7524 C   0  0  2  0  0  0  0  0  0  0  0  0
   -5.7903   -0.9163   -1.4247 H   0  0  0  0  0  0  0  0  0  0  0  0
   -7.0525   -1.7949   -1.5550 O   0  0  0  0  0  0  0  0  0  0  0  0
   -5.9569   -2.7411   -1.1932 C   0  0  1  0  0  0  0  0  0  0  0  0
   -6.0680   -3.7058   -1.7181 H   0  0  0  0  0  0  0  0  0  0  0  0
   -4.5486   -2.1679   -1.3609 C   0  0  1  0  0  0  0  0  0  0  0  0
   -4.2806   -2.3006   -2.4078 H   0  0  0  0  0  0  0  0  0  0  0  0
   -4.1904   -0.8495   -1.0628 O   0  0  0  0  0  0  0  0  0  0  0  0
   -3.5574   -3.0593   -0.5775 C   0  0  1  0  0  0  0  0  0  0  0  0
   -3.5308   -4.0581   -0.9881 H   0  0  0  0  0  0  0  0  0  0  0  0
   -2.2694   -2.4367   -0.6965 O   0  0  0  0  0  0  0  0  0  0  0  0
   -3.6844    1.0880    0.3619 C   0  0  0  0  0  0  0  0  0  0  0  0
   -4.4133    2.4370    0.3262 C   0  0  0  0  0  0  0  0  0  0  0  0
    1.9632    2.7000   -0.3590 O   0  0  0  0  0  0  0  0  0  0  0  0
   -2.2474    3.5051    0.3108 O   0  0  0  0  0  0  0  0  0  0  0  0
   -4.6440    5.1333   -1.1726 H   0  0  0  0  0  0  0  0  0  0  0  0
   -4.8053    4.9294    0.6017 H   0  0  0  0  0  0  0  0  0  0  0  0
   -3.6838    7.5896   -0.6545 H   0  0  0  0  0  0  0  0  0  0  0  0
   -1.9062    7.5735   -0.0722 H   0  0  0  0  0  0  0  0  0  0  0  0
   -0.5717    4.6363   -1.2344 H   0  0  0  0  0  0  0  0  0  0  0  0
   -0.3563    6.1710   -0.3534 H   0  0  0  0  0  0  0  0  0  0  0  0
    0.9751    5.1942    1.2953 H   0  0  0  0  0  0  0  0  0  0  0  0
    0.2608    3.5814    1.0631 H   0  0  0  0  0  0  0  0  0  0  0  0
    3.5548    5.1834   -0.8389 H   0  0  0  0  0  0  0  0  0  0  0  0
    2.7376    5.7019    0.6436 H   0  0  0  0  0  0  0  0  0  0  0  0
    2.3937    2.9062    1.8855 H   0  0  0  0  0  0  0  0  0  0  0  0
    3.9594    2.8718    2.7313 H   0  0  0  0  0  0  0  0  0  0  0  0
    2.9738    4.3539    2.7434 H   0  0  0  0  0  0  0  0  0  0  0  0
    6.1686    2.3532    0.8567 H   0  0  0  0  0  0  0  0  0  0  0  0
    5.7018    1.3605   -0.6585 H   0  0  0  0  0  0  0  0  0  0  0  0
    2.3882    0.6420   -1.8531 H   0  0  0  0  0  0  0  0  0  0  0  0
    4.1469    0.8054   -2.0468 H   0  0  0  0  0  0  0  0  0  0  0  0
    6.1409   -3.3992   -0.0441 H   0  0  0  0  0  0  0  0  0  0  0  0
    5.9380   -2.2598   -1.3964 H   0  0  0  0  0  0  0  0  0  0  0  0
    7.3648   -0.4014   -1.4247 H   0  0  0  0  0  0  0  0  0  0  0  0
    8.5246   -3.5539   -0.3723 H   0  0  0  0  0  0  0  0  0  0  0  0
    8.4988   -2.4260   -1.7490 H   0  0  0  0  0  0  0  0  0  0  0  0
   10.6025   -2.5219   -0.7163 H   0  0  0  0  0  0  0  0  0  0  0  0
    9.9625   -1.0372   -0.6313 H   0  0  0  0  0  0  0  0  0  0  0  0
    3.8231   -5.3632   -0.9689 H   0  0  0  0  0  0  0  0  0  0  0  0
    4.3808   -4.6882    0.5808 H   0  0  0  0  0  0  0  0  0  0  0  0
    2.6472   -4.6763    0.1772 H   0  0  0  0  0  0  0  0  0  0  0  0
    1.8309   -0.8974    1.7052 H   0  0  0  0  0  0  0  0  0  0  0  0
    0.8029   -0.3978    0.3426 H   0  0  0  0  0  0  0  0  0  0  0  0
    0.0726   -2.2020   -1.2488 H   0  0  0  0  0  0  0  0  0  0  0  0
    0.5980   -3.8622   -0.8936 H   0  0  0  0  0  0  0  0  0  0  0  0
   -0.7946   -4.1156    1.8019 H   0  0  0  0  0  0  0  0  0  0  0  0
   -1.4434   -2.4544    1.8091 H   0  0  0  0  0  0  0  0  0  0  0  0
   -3.0303   -5.0203    1.2698 H   0  0  0  0  0  0  0  0  0  0  0  0
   -3.1582   -3.9789    2.7148 H   0  0  0  0  0  0  0  0  0  0  0  0
   -6.6113    1.1786    0.1334 H   0  0  0  0  0  0  0  0  0  0  0  0
   -5.9552    1.1262   -1.5579 H   0  0  0  0  0  0  0  0  0  0  0  0
   -3.3237    0.8909    1.3714 H   0  0  0  0  0  0  0  0  0  0  0  0
   -2.8450    1.1045   -0.3332 H   0  0  0  0  0  0  0  0  0  0  0  0
   -4.6336    2.7604    1.3436 H   0  0  0  0  0  0  0  0  0  0  0  0
   -5.3413    2.3363   -0.2367 H   0  0  0  0  0  0  0  0  0  0  0  0
  1  2  1  0  0  0  0
  2  3  1  0  0  0  0
  3  4  1  0  0  0  0
  4  5  2  0  0  0  0
  4  6  1  0  0  0  0
  6  7  1  0  0  0  0
  6  8  1  0  0  0  0
  8  9  1  0  0  0  0
  9 10  1  0  0  0  0
 10 11  1  0  0  0  0
 10 12  1  0  0  0  0
 12 13  1  0  0  0  0
 13 14  1  0  0  0  0
 13 15  1  0  0  0  0
 13 16  1  0  0  0  0
 16 17  2  0  0  0  0
 16 18  1  0  0  0  0
 18 19  1  0  0  0  0
 18 20  1  0  0  0  0
 20 21  1  0  0  0  0
 21 22  1  0  0  0  0
 21 23  1  0  0  0  0
 23 24  1  0  0  0  0
 24 25  1  0  0  0  0
 24 26  1  0  0  0  0
 26 27  1  0  0  0  0
 27 28  1  0  0  0  0
 27 29  1  0  0  0  0
 27 30  1  0  0  0  0
 30 31  1  0  0  0  0
 24 32  1  0  0  0  0
 32 33  1  0  0  0  0
 32 34  1  0  0  0  0
 34 35  1  0  0  0  0
 32 36  1  0  0  0  0
 21 36  1  0  0  0  0
 36 37  1  0  0  0  0
 36 38  1  0  0  0  0
 38 39  1  0  0  0  0
 39 40  2  0  0  0  0
 39 41  1  0  0  0  0
 41 42  1  0  0  0  0
 42 43  1  0  0  0  0
 42 44  1  0  0  0  0
 44 45  1  0  0  0  0
 45 46  1  0  0  0  0
 46 47  1  0  0  0  0
 46 48  1  0  0  0  0
 48 49  1  0  0  0  0
 49 50  1  0  0  0  0
 49 51  1  0  0  0  0
 51 52  1  0  0  0  0
 51 53  1  0  0  0  0
 53 54  1  0  0  0  0
 54 55  1  0  0  0  0
 55 56  1  0  0  0  0
 51 56  1  0  0  0  0
 56 57  1  0  0  0  0
 56 58  1  0  0  0  0
 58 59  1  0  0  0  0
 49 59  1  0  0  0  0
 59 60  1  0  0  0  0
 59 61  1  0  0  0  0
 61 62  1  0  0  0  0
 61 63  1  0  0  0  0
 54 63  1  0  0  0  0
 61 64  1  0  0  0  0
 46 64  1  0  0  0  0
 64 65  1  0  0  0  0
 64 66  1  0  0  0  0
 42 66  1  0  0  0  0
 54 67  1  0  0  0  0
 67 68  1  0  0  0  0
  2 68  1  0  0  0  0
 18 69  1  0  0  0  0
 10 69  1  0  0  0  0
  6 70  1  0  0  0  0
  2 70  1  0  0  0  0
  3 71  1  0  0  0  0
  3 72  1  0  0  0  0
  5 73  1  0  0  0  0
  5 74  1  0  0  0  0
  8 75  1  0  0  0  0
  8 76  1  0  0  0  0
  9 77  1  0  0  0  0
  9 78  1  0  0  0  0
 12 79  1  0  0  0  0
 12 80  1  0  0  0  0
 15 81  1  0  0  0  0
 15 82  1  0  0  0  0
 15 83  1  0  0  0  0
 17 84  1  0  0  0  0
 17 85  1  0  0  0  0
 20 86  1  0  0  0  0
 20 87  1  0  0  0  0
 26 88  1  0  0  0  0
 26 89  1  0  0  0  0
 29 90  1  0  0  0  0
 30 91  1  0  0  0  0
 30 92  1  0  0  0  0
 31 93  1  0  0  0  0
 31 94  1  0  0  0  0
 35 95  1  0  0  0  0
 35 96  1  0  0  0  0
 35 97  1  0  0  0  0
 38 98  1  0  0  0  0
 38 99  1  0  0  0  0
 41100  1  0  0  0  0
 41101  1  0  0  0  0
 44102  1  0  0  0  0
 44103  1  0  0  0  0
 45104  1  0  0  0  0
 45105  1  0  0  0  0
 55106  1  0  0  0  0
 55107  1  0  0  0  0
 67108  1  0  0  0  0
 67109  1  0  0  0  0
 68110  1  0  0  0  0
 68111  1  0  0  0  0
M  END
> <UNIQUE_SMILES>
CO[C@H]1[C@@H](C[C@H](O)CN)O[C@H]2C[C@H]3O[C@@H](CC[C@@H]4O[C@@H](CC[C@@]56C[C@@H]7O[C@@H]8[C@@H](O[C@H]9CC[C@H](CC(=O)C[C@H]12)O[C@@H]9[C@@H]8O5)[C@H]7O6)CC4=C)C[C@@H](C)C3=C

> <USER_SUPPLIED_SMILES>
[H][C@@]12CC(=C)[C@]([H])(CC[C@@]3([H])C[C@@H](C)C(=C)[C@@]([H])(C[C@]4([H])O[C@H](C[C@H](O)CN)[C@H](OC)[C@@]4([H])CC(=O)C[C@@]4([H])CC[C@]5([H])O[C@@]6([H])[C@H]7O[C@@]8(C[C@]7([H])O[C@@]6([H])[C@@]([H])(O8)[C@@]5([H])O4)CC1)O3)O2

$$$$
