
     RDKit          3D

  0  0  0  0  0  0  0  0  0  0999 V3000
M  V30 BEGIN CTAB
M  V30 COUNTS 97 105 0 0 0
M  V30 BEGIN ATOM
M  V30 1 H -2.60144 -1.32739 -1.94692 0
M  V30 2 C -1.90635 -1.43133 -1.08464 0 CFG=2
M  V30 3 C -0.493711 -1.08421 -1.64138 0 CFG=2
M  V30 4 S 0.881145 -1.17745 -0.382947 0
M  V30 5 C 1.66859 0.487103 -0.28952 0
M  V30 6 C 1.5682 1.0746 1.14678 0 CFG=1
M  V30 7 N 2.1894 0.107004 2.0868 0
M  V30 8 C 2.43682 0.678315 3.41487 0
M  V30 9 C 3.4935 1.77314 3.33707 0
M  V30 10 C 3.18535 2.75408 2.24087 0
M  V30 11 C 2.26308 2.45191 1.21194 0
M  V30 12 C 1.97201 3.45796 0.265425 0
M  V30 13 C 2.61594 4.7002 0.285117 0
M  V30 14 O 2.26773 5.60806 -0.729625 0
M  V30 15 C 2.88502 6.86177 -0.982965 0
M  V30 16 C 3.55999 4.97035 1.29916 0
M  V30 17 O 4.21407 6.19879 1.37398 0
M  V30 18 C 3.83824 3.99295 2.25797 0
M  V30 19 C 0.0966768 1.22753 1.46696 0
M  V30 20 O -0.46243 0.482689 2.32019 0
M  V30 21 O -0.661394 2.13609 0.730787 0
M  V30 22 C -2.0603 1.99373 0.522768 0
M  V30 23 C -2.35572 0.975422 -0.604808 0 CFG=2
M  V30 24 N -2.30899 -0.42907 -0.0626172 0
M  V30 25 C -3.61168 -0.778287 0.577185 0 CFG=1
M  V30 26 O -4.68955 -0.555131 -0.303564 0
M  V30 27 C -3.64106 -2.2414 1.07403 0 CFG=2
M  V30 28 C -2.61493 -2.47992 2.22192 0
M  V30 29 C -1.29204 -3.0662 1.76402 0
M  V30 30 C -0.325265 -3.39497 2.72355 0
M  V30 31 C 0.85415 -4.05202 2.35537 0
M  V30 32 C 1.86991 -4.40644 3.40245 0
M  V30 33 C 1.04332 -4.44809 1.02008 0
M  V30 34 O 2.19862 -5.14425 0.660632 0
M  V30 35 C 2.20291 -6.56146 0.54267 0
M  V30 36 C 0.0900547 -4.11286 0.0436449 0
M  V30 37 O 0.299646 -4.45019 -1.29452 0
M  V30 38 C -1.05994 -3.3803 0.408264 0
M  V30 39 C -2.06974 -2.93453 -0.622117 0 CFG=1
M  V30 40 N -3.38955 -3.19104 -0.0266339 0
M  V30 41 C -4.47668 -3.33642 -1.01474 0
M  V30 42 C -1.44669 1.23174 -1.81207 0
M  V30 43 C -1.48804 2.45383 -2.49161 0
M  V30 44 O -2.27384 3.55775 -2.22133 0
M  V30 45 C -1.97518 4.57203 -3.1857 0
M  V30 46 O -0.975726 3.99507 -4.03356 0
M  V30 47 C -0.717469 2.71426 -3.58106 0
M  V30 48 C 0.161556 1.77226 -4.11409 0
M  V30 49 C 0.97216 2.09564 -5.34027 0
M  V30 50 C 0.25872 0.524517 -3.45036 0
M  V30 51 O 1.16106 -0.452565 -3.88286 0
M  V30 52 C 2.54878 -0.304901 -3.79567 0
M  V30 53 C 3.42328 -1.4158 -4.25649 0
M  V30 54 O 3.06348 0.758424 -3.3521 0
M  V30 55 C -0.568334 0.247866 -2.32394 0
M  V30 56 H -0.271313 -1.86028 -2.40676 0
M  V30 57 H 2.74049 0.359965 -0.550119 0
M  V30 58 H 1.26666 1.18516 -1.03275 0
M  V30 59 H 3.10456 -0.230589 1.70502 0
M  V30 60 H 1.49847 1.09117 3.84397 0
M  V30 61 H 2.79021 -0.12057 4.10322 0
M  V30 62 H 4.49202 1.32403 3.15016 0
M  V30 63 H 3.52777 2.30016 4.31716 0
M  V30 64 H 1.23511 3.2951 -0.508937 0
M  V30 65 H 3.96956 6.72418 -1.17003 0
M  V30 66 H 2.42878 7.31178 -1.89085 0
M  V30 67 H 2.71812 7.54886 -0.130308 0
M  V30 68 H 4.8901 6.39704 2.10609 0
M  V30 69 H 4.55591 4.20748 3.04016 0
M  V30 70 H -2.4633 2.98917 0.242544 0
M  V30 71 H -2.56508 1.72852 1.47234 0
M  V30 72 H -3.37477 1.20947 -0.979981 0
M  V30 73 H -3.75717 -0.133229 1.47356 0
M  V30 74 H -5.51261 -0.485872 0.247684 0
M  V30 75 H -4.65055 -2.432 1.50297 0
M  V30 76 H -3.06124 -3.20128 2.94103 0
M  V30 77 H -2.42347 -1.54101 2.78614 0
M  V30 78 H -0.503845 -3.15341 3.76448 0
M  V30 79 H 1.74987 -5.47151 3.68445 0
M  V30 80 H 1.74984 -3.77929 4.30842 0
M  V30 81 H 2.89455 -4.2423 3.01525 0
M  V30 82 H 1.44606 -6.8962 -0.196049 0
M  V30 83 H 3.20842 -6.88782 0.20331 0
M  V30 84 H 1.98271 -7.02124 1.52778 0
M  V30 85 H 1.14314 -4.90527 -1.62063 0
M  V30 86 H -1.96315 -3.57581 -1.5253 0
M  V30 87 H -4.47854 -2.5184 -1.76348 0
M  V30 88 H -4.34605 -4.29802 -1.55855 0
M  V30 89 H -5.46808 -3.37113 -0.510939 0
M  V30 90 H -2.88404 4.81606 -3.77433 0
M  V30 91 H -1.57525 5.47474 -2.67885 0
M  V30 92 H 1.14726 1.18071 -5.94561 0
M  V30 93 H 0.43957 2.82601 -5.98694 0
M  V30 94 H 1.95067 2.53156 -5.04241 0
M  V30 95 H 4.34035 -1.4675 -3.63008 0
M  V30 96 H 2.87495 -2.37909 -4.17069 0
M  V30 97 H 3.70268 -1.24838 -5.31853 0
M  V30 END ATOM
M  V30 BEGIN BOND
M  V30 1 1 2 1 CFG=3
M  V30 2 1 2 3
M  V30 3 1 3 4
M  V30 4 1 4 5
M  V30 5 1 5 6
M  V30 6 1 6 7 CFG=1
M  V30 7 1 7 8
M  V30 8 1 8 9
M  V30 9 1 9 10
M  V30 10 2 10 11
M  V30 11 1 11 12
M  V30 12 2 12 13
M  V30 13 1 13 14
M  V30 14 1 14 15
M  V30 15 1 13 16
M  V30 16 1 16 17
M  V30 17 2 16 18
M  V30 18 1 6 19
M  V30 19 2 19 20
M  V30 20 1 19 21
M  V30 21 1 21 22
M  V30 22 1 22 23
M  V30 23 1 23 24
M  V30 24 1 24 25
M  V30 25 1 25 26
M  V30 26 1 25 27
M  V30 27 1 27 28
M  V30 28 1 28 29
M  V30 29 2 29 30
M  V30 30 1 30 31
M  V30 31 1 31 32
M  V30 32 2 31 33
M  V30 33 1 33 34
M  V30 34 1 34 35
M  V30 35 1 33 36
M  V30 36 1 36 37
M  V30 37 2 36 38
M  V30 38 1 38 39
M  V30 39 1 39 40
M  V30 40 1 40 41
M  V30 41 1 23 42
M  V30 42 2 42 43
M  V30 43 1 43 44
M  V30 44 1 44 45
M  V30 45 1 45 46
M  V30 46 1 46 47
M  V30 47 2 47 48
M  V30 48 1 48 49
M  V30 49 1 48 50
M  V30 50 1 50 51
M  V30 51 1 51 52
M  V30 52 1 52 53
M  V30 53 2 52 54
M  V30 54 2 50 55
M  V30 55 1 24 2
M  V30 56 1 40 27
M  V30 57 1 55 42
M  V30 58 1 39 2
M  V30 59 1 47 43
M  V30 60 1 55 3
M  V30 61 1 11 6
M  V30 62 1 38 29
M  V30 63 1 18 10
M  V30 64 1 3 56 CFG=3
M  V30 65 1 5 57
M  V30 66 1 5 58
M  V30 67 1 7 59
M  V30 68 1 8 60
M  V30 69 1 8 61
M  V30 70 1 9 62
M  V30 71 1 9 63
M  V30 72 1 12 64
M  V30 73 1 15 65
M  V30 74 1 15 66
M  V30 75 1 15 67
M  V30 76 1 17 68
M  V30 77 1 18 69
M  V30 78 1 22 70
M  V30 79 1 22 71
M  V30 80 1 23 72 CFG=3
M  V30 81 1 25 73 CFG=1
M  V30 82 1 26 74
M  V30 83 1 27 75 CFG=1
M  V30 84 1 28 76
M  V30 85 1 28 77
M  V30 86 1 30 78
M  V30 87 1 32 79
M  V30 88 1 32 80
M  V30 89 1 32 81
M  V30 90 1 35 82
M  V30 91 1 35 83
M  V30 92 1 35 84
M  V30 93 1 37 85
M  V30 94 1 39 86 CFG=3
M  V30 95 1 41 87
M  V30 96 1 41 88
M  V30 97 1 41 89
M  V30 98 1 45 90
M  V30 99 1 45 91
M  V30 100 1 49 92
M  V30 101 1 49 93
M  V30 102 1 49 94
M  V30 103 1 53 95
M  V30 104 1 53 96
M  V30 105 1 53 97
M  V30 END BOND
M  V30 END CTAB
M  END
$$$$
