C39H43N3O11S
APtclcactv06182508403D 0   0.00000     0.00000
 
 97105  0  0  1  0  0  0  0  0999 V2000
   -0.8037    0.5262   -1.0042 H   0  0  0  0  0  0  0  0  0  0  0  0
    0.2902    0.4950   -0.7653 C   0  0  2  0  0  0  0  0  0  0  0  0
    0.4525   -0.3987    0.4499 C   0  0  2  0  0  0  0  0  0  0  0  0
   -0.5477   -1.0233    0.1417 H   0  0  0  0  0  0  0  0  0  0  0  0
   -0.2762    0.0698    1.9834 S   0  0  0  0  0  0  0  0  0  0  0  0
   -1.9080    0.5772    1.3527 C   0  0  0  0  0  0  0  0  0  0  0  0
   -2.6307   -0.5513    0.6104 C   0  0  1  0  0  0  0  0  0  0  0  0
   -2.4187   -1.8162    1.3150 N   0  0  0  0  0  0  0  0  0  0  0  0
   -3.3033   -2.8132    0.6988 C   0  0  0  0  0  0  0  0  0  0  0  0
   -4.7459   -2.5507    1.1321 C   0  0  0  0  0  0  0  0  0  0  0  0
   -5.0848   -1.0986    0.9186 C   0  0  0  0  0  0  0  0  0  0  0  0
   -4.1017   -0.1721    0.6667 C   0  0  0  0  0  0  0  0  0  0  0  0
   -4.4286    1.1610    0.4628 C   0  0  0  0  0  0  0  0  0  0  0  0
   -5.7494    1.5701    0.5269 C   0  0  0  0  0  0  0  0  0  0  0  0
   -6.0718    2.8770    0.3331 O   0  0  0  0  0  0  0  0  0  0  0  0
   -4.8479    3.5723    0.0874 C   0  0  0  0  0  0  0  0  0  0  0  0
   -6.7454    0.6339    0.7916 C   0  0  0  0  0  0  0  0  0  0  0  0
   -8.0462    1.0247    0.8604 O   0  0  0  0  0  0  0  0  0  0  0  0
   -6.4101   -0.6952    0.9842 C   0  0  0  0  0  0  0  0  0  0  0  0
   -2.2463   -0.6726   -0.8334 C   0  0  0  0  0  0  0  0  0  0  0  0
   -2.4275    0.3055   -1.5192 O   0  0  0  0  0  0  0  0  0  0  0  0
   -1.7300   -1.7297   -1.4439 O   0  0  0  0  0  0  0  0  0  0  0  0
   -0.9314   -1.7029   -2.6759 C   0  0  0  0  0  0  0  0  0  0  0  0
    0.4909   -1.3650   -2.2918 C   0  0  2  0  0  0  0  0  0  0  0  0
   -0.2003   -1.0108   -1.3432 H   0  0  0  0  0  0  0  0  0  0  0  0
    0.8991    0.0580   -2.0507 N   0  0  0  0  0  0  0  0  0  0  0  0
    0.2105    0.8584   -3.0780 C   0  0  1  0  0  0  0  0  0  0  0  0
    0.5646    0.5686   -4.0673 H   0  0  0  0  0  0  0  0  0  0  0  0
   -1.1995    0.6438   -2.9901 O   0  0  0  0  0  0  0  0  0  0  0  0
    0.5253    2.3333   -2.8304 C   0  0  2  0  0  0  0  0  0  0  0  0
    0.0316    2.8978   -3.6202 H   0  0  0  0  0  0  0  0  0  0  0  0
    2.0133    2.6007   -2.9438 C   0  0  0  0  0  0  0  0  0  0  0  0
    2.7103    2.6153   -1.6137 C   0  0  0  0  0  0  0  0  0  0  0  0
    4.0359    3.0158   -1.5483 C   0  0  0  0  0  0  0  0  0  0  0  0
    4.7035    3.0348   -0.3394 C   0  0  0  0  0  0  0  0  0  0  0  0
    6.1407    3.4843   -0.2812 C   0  0  0  0  0  0  0  0  0  0  0  0
    4.0547    2.6422    0.8196 C   0  0  0  0  0  0  0  0  0  0  0  0
    4.7162    2.6436    2.0078 O   0  0  0  0  0  0  0  0  0  0  0  0
    4.5236    3.9361    2.5861 C   0  0  0  0  0  0  0  0  0  0  0  0
    2.7219    2.2466    0.7610 C   0  0  0  0  0  0  0  0  0  0  0  0
    2.0784    1.8477    1.8907 O   0  0  0  0  0  0  0  0  0  0  0  0
    2.0526    2.2609   -0.4514 C   0  0  0  0  0  0  0  0  0  0  0  0
    0.5832    1.9618   -0.4910 C   0  0  1  0  0  0  0  0  0  0  0  0
    0.1290    2.2568    0.4586 H   0  0  0  0  0  0  0  0  0  0  0  0
   -0.0267    2.7822   -1.5569 N   0  0  0  0  0  0  0  0  0  0  0  0
    0.4462    4.1580   -1.3534 C   0  0  0  0  0  0  0  0  0  0  0  0
    1.1406   -2.1972   -1.1770 C   0  0  0  0  0  0  0  0  0  0  0  0
    1.7320   -3.4132   -1.4230 C   0  0  0  0  0  0  0  0  0  0  0  0
    1.8380   -4.1193   -2.5706 O   0  0  0  0  0  0  0  0  0  0  0  0
    2.6356   -5.2797   -2.2956 C   0  0  0  0  0  0  0  0  0  0  0  0
    2.8974   -5.2625   -0.8855 O   0  0  0  0  0  0  0  0  0  0  0  0
    2.3847   -4.1161   -0.3964 C   0  0  0  0  0  0  0  0  0  0  0  0
    2.4347   -3.6070    0.8951 C   0  0  0  0  0  0  0  0  0  0  0  0
    3.1490   -4.3486    1.9955 C   0  0  0  0  0  0  0  0  0  0  0  0
    1.8058   -2.3922    1.1405 C   0  0  0  0  0  0  0  0  0  0  0  0
    1.8254   -1.8880    2.4033 O   0  0  0  0  0  0  0  0  0  0  0  0
    2.8250   -1.0784    2.7873 C   0  0  0  0  0  0  0  0  0  0  0  0
    2.8468   -0.5197    4.1868 C   0  0  0  0  0  0  0  0  0  0  0  0
    3.7073   -0.7977    2.0110 O   0  0  0  0  0  0  0  0  0  0  0  0
    1.1607   -1.6777    0.1471 C   0  0  0  0  0  0  0  0  0  0  0  0
   -2.5253    0.8986    2.1916 H   0  0  0  0  0  0  0  0  0  0  0  0
   -1.7765    1.4185    0.6724 H   0  0  0  0  0  0  0  0  0  0  0  0
   -1.4728   -2.1047    1.1147 H   0  0  0  0  0  0  0  0  0  0  0  0
   -3.2310   -2.7419   -0.3865 H   0  0  0  0  0  0  0  0  0  0  0  0
   -3.0038   -3.8115    1.0178 H   0  0  0  0  0  0  0  0  0  0  0  0
   -5.4200   -3.1706    0.5410 H   0  0  0  0  0  0  0  0  0  0  0  0
   -4.8574   -2.7972    2.1880 H   0  0  0  0  0  0  0  0  0  0  0  0
   -3.6510    1.8808    0.2541 H   0  0  0  0  0  0  0  0  0  0  0  0
   -5.0569    4.6297   -0.0747 H   0  0  0  0  0  0  0  0  0  0  0  0
   -4.1873    3.4601    0.9471 H   0  0  0  0  0  0  0  0  0  0  0  0
   -4.3657    3.1574   -0.7978 H   0  0  0  0  0  0  0  0  0  0  0  0
   -8.4083    0.9492   -0.0331 H   0  0  0  0  0  0  0  0  0  0  0  0
   -7.1837   -1.4212    1.1864 H   0  0  0  0  0  0  0  0  0  0  0  0
   -0.9620   -2.6802   -3.1577 H   0  0  0  0  0  0  0  0  0  0  0  0
   -1.3219   -0.9434   -3.3532 H   0  0  0  0  0  0  0  0  0  0  0  0
   -1.6082    1.1857   -3.6789 H   0  0  0  0  0  0  0  0  0  0  0  0
    2.4621    1.8267   -3.5663 H   0  0  0  0  0  0  0  0  0  0  0  0
    2.1600    3.5666   -3.4271 H   0  0  0  0  0  0  0  0  0  0  0  0
    4.5506    3.3148   -2.4495 H   0  0  0  0  0  0  0  0  0  0  0  0
    6.1783    4.5604   -0.1118 H   0  0  0  0  0  0  0  0  0  0  0  0
    6.6494    2.9702    0.5343 H   0  0  0  0  0  0  0  0  0  0  0  0
    6.6340    3.2475   -1.2239 H   0  0  0  0  0  0  0  0  0  0  0  0
    5.0386    3.9852    3.5456 H   0  0  0  0  0  0  0  0  0  0  0  0
    4.9269    4.6969    1.9179 H   0  0  0  0  0  0  0  0  0  0  0  0
    3.4584    4.1119    2.7361 H   0  0  0  0  0  0  0  0  0  0  0  0
    1.6802    2.6384    2.2796 H   0  0  0  0  0  0  0  0  0  0  0  0
    1.5171    4.2071   -1.5507 H   0  0  0  0  0  0  0  0  0  0  0  0
   -0.0797    4.8274   -2.0342 H   0  0  0  0  0  0  0  0  0  0  0  0
    0.2521    4.4605   -0.3244 H   0  0  0  0  0  0  0  0  0  0  0  0
    2.0877   -6.1830   -2.5638 H   0  0  0  0  0  0  0  0  0  0  0  0
    3.5722   -5.2307   -2.8511 H   0  0  0  0  0  0  0  0  0  0  0  0
    4.1909   -4.0305    2.0313 H   0  0  0  0  0  0  0  0  0  0  0  0
    2.6698   -4.1317    2.9503 H   0  0  0  0  0  0  0  0  0  0  0  0
    3.1028   -5.4201    1.8010 H   0  0  0  0  0  0  0  0  0  0  0  0
    3.3907   -1.2006    4.8414 H   0  0  0  0  0  0  0  0  0  0  0  0
    3.3404    0.4521    4.1824 H   0  0  0  0  0  0  0  0  0  0  0  0
    1.8249   -0.4065    4.5487 H   0  0  0  0  0  0  0  0  0  0  0  0
  1  2  1  0  0  0  0
  2  3  1  0  0  0  0
  3  4  1  0  0  0  0
  3  5  1  0  0  0  0
  5  6  1  0  0  0  0
  6  7  1  0  0  0  0
  7  8  1  0  0  0  0
  8  9  1  0  0  0  0
  9 10  1  0  0  0  0
 10 11  1  0  0  0  0
 11 12  2  0  0  0  0
  7 12  1  0  0  0  0
 12 13  1  0  0  0  0
 13 14  2  0  0  0  0
 14 15  1  0  0  0  0
 15 16  1  0  0  0  0
 14 17  1  0  0  0  0
 17 18  1  0  0  0  0
 17 19  2  0  0  0  0
 11 19  1  0  0  0  0
  7 20  1  0  0  0  0
 20 21  2  0  0  0  0
 20 22  1  0  0  0  0
 22 23  1  0  0  0  0
 23 24  1  0  0  0  0
 24 25  1  0  0  0  0
 24 26  1  0  0  0  0
  2 26  1  0  0  0  0
 26 27  1  0  0  0  0
 27 28  1  0  0  0  0
 27 29  1  0  0  0  0
 27 30  1  0  0  0  0
 30 31  1  0  0  0  0
 30 32  1  0  0  0  0
 32 33  1  0  0  0  0
 33 34  2  0  0  0  0
 34 35  1  0  0  0  0
 35 36  1  0  0  0  0
 35 37  2  0  0  0  0
 37 38  1  0  0  0  0
 38 39  1  0  0  0  0
 37 40  1  0  0  0  0
 40 41  1  0  0  0  0
 40 42  2  0  0  0  0
 33 42  1  0  0  0  0
 42 43  1  0  0  0  0
 43 44  1  0  0  0  0
  2 43  1  0  0  0  0
 43 45  1  0  0  0  0
 30 45  1  0  0  0  0
 45 46  1  0  0  0  0
 24 47  1  0  0  0  0
 47 48  2  0  0  0  0
 48 49  1  0  0  0  0
 49 50  1  0  0  0  0
 50 51  1  0  0  0  0
 51 52  1  0  0  0  0
 48 52  1  0  0  0  0
 52 53  2  0  0  0  0
 53 54  1  0  0  0  0
 53 55  1  0  0  0  0
 55 56  1  0  0  0  0
 56 57  1  0  0  0  0
 57 58  1  0  0  0  0
 57 59  2  0  0  0  0
 55 60  2  0  0  0  0
  3 60  1  0  0  0  0
 47 60  1  0  0  0  0
  6 61  1  0  0  0  0
  6 62  1  0  0  0  0
  8 63  1  0  0  0  0
  9 64  1  0  0  0  0
  9 65  1  0  0  0  0
 10 66  1  0  0  0  0
 10 67  1  0  0  0  0
 13 68  1  0  0  0  0
 16 69  1  0  0  0  0
 16 70  1  0  0  0  0
 16 71  1  0  0  0  0
 18 72  1  0  0  0  0
 19 73  1  0  0  0  0
 23 74  1  0  0  0  0
 23 75  1  0  0  0  0
 29 76  1  0  0  0  0
 32 77  1  0  0  0  0
 32 78  1  0  0  0  0
 34 79  1  0  0  0  0
 36 80  1  0  0  0  0
 36 81  1  0  0  0  0
 36 82  1  0  0  0  0
 39 83  1  0  0  0  0
 39 84  1  0  0  0  0
 39 85  1  0  0  0  0
 41 86  1  0  0  0  0
 46 87  1  0  0  0  0
 46 88  1  0  0  0  0
 46 89  1  0  0  0  0
 50 90  1  0  0  0  0
 50 91  1  0  0  0  0
 54 92  1  0  0  0  0
 54 93  1  0  0  0  0
 54 94  1  0  0  0  0
 58 95  1  0  0  0  0
 58 96  1  0  0  0  0
 58 97  1  0  0  0  0
M  END
> <UNIQUE_SMILES>
COC1=CC2=C(CCN[C@]23CS[C@H]4[C@H]5[C@@H]6N(C)[C@@H](CC7=CC(=C(OC)C(=C67)O)C)[C@H](O)N5[C@@H](COC3=O)C8=C9OCOC9=C(C)C(=C48)OC(C)=O)C=C1O

> <USER_SUPPLIED_SMILES>
[H][C@@]12[C@@H]3SC[C@]4(NCCC5=C4C=C(OC)C(O)=C5)C(=O)OC[C@H](N1[C@@H](O)[C@@H]1CC4=CC(C)=C(OC)C(O)=C4[C@H]2N1C)C1=C2OCOC2=C(C)C(OC(C)=O)=C31

$$$$
